<?xml version="1.0" encoding="UTF-8"?>

<!-- generated on 2024-02-27 17:08:02 by Eclipse SUMO netedit Version 1.19.0
<configuration xmlns:xsi="http://www.w3.org/2001/XMLSchema-instance" xsi:noNamespaceSchemaLocation="http://sumo.dlr.de/xsd/neteditConfiguration.xsd">

    <input>
        <sumo-net-file value="map/4-way.net.xml"/>
    </input>

    <output>
        <output-file value="map/4-way.net.xml"/>
    </output>

    <processing>
        <geometry.min-radius.fix.railways value="false"/>
        <geometry.max-grade.fix value="false"/>
        <offset.disable-normalization value="true"/>
        <lefthand value="0"/>
    </processing>

    <junctions>
        <no-turnarounds value="true"/>
        <junctions.corner-detail value="5"/>
        <junctions.limit-turn-speed value="5.50"/>
        <rectangular-lane-cut value="0"/>
    </junctions>

    <pedestrian>
        <walkingareas value="0"/>
    </pedestrian>

</configuration>
-->

<net version="1.16" junctionCornerDetail="5" limitTurnSpeed="5.50" xmlns:xsi="http://www.w3.org/2001/XMLSchema-instance" xsi:noNamespaceSchemaLocation="http://sumo.dlr.de/xsd/net_file.xsd">

    <location netOffset="0.00,0.00" convBoundary="-10.40,-60.40,160.40,60.40" origBoundary="-10000000000.00,-10000000000.00,10000000000.00,10000000000.00" projParameter="!"/>

    <edge id=":JTL_0" function="internal">
        <lane id=":JTL_0_0" index="0" speed="6.51" length="9.03" shape="95.20,10.40 94.85,7.95 93.80,6.20 92.05,5.15 89.60,4.80"/>
    </edge>
    <edge id=":JTL_1" function="internal">
        <lane id=":JTL_1_0" index="0" speed="100.00" length="20.80" shape="95.20,10.40 95.20,-10.40"/>
        <lane id=":JTL_1_1" index="1" speed="100.00" length="20.80" shape="98.40,10.40 98.40,-10.40"/>
    </edge>
    <edge id=":JTL_3" function="internal">
        <lane id=":JTL_3_0" index="0" speed="9.26" length="5.01" shape="98.40,10.40 99.11,5.44"/>
    </edge>
    <edge id=":JTL_4" function="internal">
        <lane id=":JTL_4_0" index="0" speed="3.65" length="1.44" shape="98.40,10.40 99.20,9.20"/>
    </edge>
    <edge id=":JTL_20" function="internal">
        <lane id=":JTL_20_0" index="0" speed="9.26" length="14.34" shape="99.11,5.44 99.15,5.15 101.40,1.40 105.15,-0.85 110.40,-1.60"/>
    </edge>
    <edge id=":JTL_21" function="internal">
        <lane id=":JTL_21_0" index="0" speed="3.65" length="3.23" shape="99.20,9.20 100.00,8.80 100.80,9.20 101.60,10.40"/>
    </edge>
    <edge id=":JTL_5" function="internal">
        <lane id=":JTL_5_0" index="0" speed="6.51" length="9.03" shape="110.40,4.80 107.95,5.15 106.20,6.20 105.15,7.95 104.80,10.40"/>
    </edge>
    <edge id=":JTL_6" function="internal">
        <lane id=":JTL_6_0" index="0" speed="100.00" length="20.80" shape="110.40,4.80 89.60,4.80"/>
        <lane id=":JTL_6_1" index="1" speed="100.00" length="20.80" shape="110.40,1.60 89.60,1.60"/>
    </edge>
    <edge id=":JTL_8" function="internal">
        <lane id=":JTL_8_0" index="0" speed="9.26" length="19.35" shape="110.40,1.60 105.15,0.85 101.40,-1.40 99.15,-5.15 98.40,-10.40"/>
    </edge>
    <edge id=":JTL_9" function="internal">
        <lane id=":JTL_9_0" index="0" speed="3.65" length="4.67" shape="110.40,1.60 109.20,0.80 108.80,0.00 109.20,-0.80 110.40,-1.60"/>
    </edge>
    <edge id=":JTL_10" function="internal">
        <lane id=":JTL_10_0" index="0" speed="6.51" length="9.03" shape="104.80,-10.40 105.15,-7.95 106.20,-6.20 107.95,-5.15 110.40,-4.80"/>
    </edge>
    <edge id=":JTL_11" function="internal">
        <lane id=":JTL_11_0" index="0" speed="100.00" length="20.80" shape="104.80,-10.40 104.80,10.40"/>
        <lane id=":JTL_11_1" index="1" speed="100.00" length="20.80" shape="101.60,-10.40 101.60,10.40"/>
    </edge>
    <edge id=":JTL_13" function="internal">
        <lane id=":JTL_13_0" index="0" speed="9.26" length="5.01" shape="101.60,-10.40 100.89,-5.44"/>
    </edge>
    <edge id=":JTL_14" function="internal">
        <lane id=":JTL_14_0" index="0" speed="3.65" length="1.44" shape="101.60,-10.40 100.80,-9.20"/>
    </edge>
    <edge id=":JTL_22" function="internal">
        <lane id=":JTL_22_0" index="0" speed="9.26" length="14.34" shape="100.89,-5.44 100.85,-5.15 98.60,-1.40 94.85,0.85 89.60,1.60"/>
    </edge>
    <edge id=":JTL_23" function="internal">
        <lane id=":JTL_23_0" index="0" speed="3.65" length="3.23" shape="100.80,-9.20 100.00,-8.80 99.20,-9.20 98.40,-10.40"/>
    </edge>
    <edge id=":JTL_15" function="internal">
        <lane id=":JTL_15_0" index="0" speed="6.51" length="9.03" shape="89.60,-4.80 92.05,-5.15 93.80,-6.20 94.85,-7.95 95.20,-10.40"/>
    </edge>
    <edge id=":JTL_16" function="internal">
        <lane id=":JTL_16_0" index="0" speed="100.00" length="20.80" shape="89.60,-4.80 110.40,-4.80"/>
        <lane id=":JTL_16_1" index="1" speed="100.00" length="20.80" shape="89.60,-1.60 110.40,-1.60"/>
    </edge>
    <edge id=":JTL_18" function="internal">
        <lane id=":JTL_18_0" index="0" speed="9.26" length="19.35" shape="89.60,-1.60 94.85,-0.85 98.60,1.40 100.85,5.15 101.60,10.40"/>
    </edge>
    <edge id=":JTL_19" function="internal">
        <lane id=":JTL_19_0" index="0" speed="3.65" length="4.67" shape="89.60,-1.60 90.80,-0.80 91.20,0.00 90.80,0.80 89.60,1.60"/>
    </edge>

    <edge id="EBE" from="JTL" to="JE" priority="-1">
        <lane id="EBE_0" index="0" speed="100.00" length="50.00" shape="110.40,-4.80 160.40,-4.80"/>
        <lane id="EBE_1" index="1" speed="100.00" length="50.00" shape="110.40,-1.60 160.40,-1.60"/>
    </edge>
    <edge id="EBW" from="JW" to="JTL" priority="-1">
        <lane id="EBW_0" index="0" speed="100.00" length="100.00" shape="-10.40,-4.80 89.60,-4.80"/>
        <lane id="EBW_1" index="1" speed="100.00" length="100.00" shape="-10.40,-1.60 89.60,-1.60"/>
    </edge>
    <edge id="NBN" from="JTL" to="JN" priority="-1">
        <lane id="NBN_0" index="0" speed="100.00" length="50.00" shape="104.80,10.40 104.80,60.40"/>
        <lane id="NBN_1" index="1" speed="100.00" length="50.00" shape="101.60,10.40 101.60,60.40"/>
    </edge>
    <edge id="NBS" from="JS" to="JTL" priority="-1">
        <lane id="NBS_0" index="0" speed="100.00" length="50.00" shape="104.80,-60.40 104.80,-10.40"/>
        <lane id="NBS_1" index="1" speed="100.00" length="50.00" shape="101.60,-60.40 101.60,-10.40"/>
    </edge>
    <edge id="SBN" from="JN" to="JTL" priority="-1">
        <lane id="SBN_0" index="0" speed="100.00" length="50.00" shape="95.20,60.40 95.20,10.40"/>
        <lane id="SBN_1" index="1" speed="100.00" length="50.00" shape="98.40,60.40 98.40,10.40"/>
    </edge>
    <edge id="SBS" from="JTL" to="JS" priority="-1">
        <lane id="SBS_0" index="0" speed="100.00" length="50.00" shape="95.20,-10.40 95.20,-60.40"/>
        <lane id="SBS_1" index="1" speed="100.00" length="50.00" shape="98.40,-10.40 98.40,-60.40"/>
    </edge>
    <edge id="WBE" from="JE" to="JTL" priority="-1">
        <lane id="WBE_0" index="0" speed="100.00" length="50.00" shape="160.40,4.80 110.40,4.80"/>
        <lane id="WBE_1" index="1" speed="100.00" length="50.00" shape="160.40,1.60 110.40,1.60"/>
    </edge>
    <edge id="WBW" from="JTL" to="JW" priority="-1">
        <lane id="WBW_0" index="0" speed="100.00" length="100.00" shape="89.60,4.80 -10.40,4.80"/>
        <lane id="WBW_1" index="1" speed="100.00" length="100.00" shape="89.60,1.60 -10.40,1.60"/>
    </edge>

    <junction id="JE" type="dead_end" x="160.40" y="0.00" incLanes="EBE_0 EBE_1" intLanes="" shape="160.40,0.00 160.40,-6.40 160.40,0.00"/>
    <junction id="JN" type="dead_end" x="100.00" y="60.40" incLanes="NBN_0 NBN_1" intLanes="" shape="100.00,60.40 106.40,60.40 100.00,60.40"/>
    <junction id="JS" type="dead_end" x="100.00" y="-60.40" incLanes="SBS_0 SBS_1" intLanes="" shape="100.00,-60.40 93.60,-60.40 100.00,-60.40"/>
    <junction id="JTL" type="priority" x="100.00" y="0.00" incLanes="SBN_0 SBN_1 WBE_0 WBE_1 NBS_0 NBS_1 EBW_0 EBW_1" intLanes=":JTL_0_0 :JTL_1_0 :JTL_1_1 :JTL_20_0 :JTL_21_0 :JTL_5_0 :JTL_6_0 :JTL_6_1 :JTL_8_0 :JTL_9_0 :JTL_10_0 :JTL_11_0 :JTL_11_1 :JTL_22_0 :JTL_23_0 :JTL_15_0 :JTL_16_0 :JTL_16_1 :JTL_18_0 :JTL_19_0" shape="93.60,10.40 106.40,10.40 106.84,8.18 107.40,7.40 108.18,6.84 109.18,6.51 110.40,6.40 110.40,-6.40 108.18,-6.84 107.40,-7.40 106.84,-8.18 106.51,-9.18 106.40,-10.40 93.60,-10.40 93.16,-8.18 92.60,-7.40 91.82,-6.84 90.82,-6.51 89.60,-6.40 89.60,6.40 91.82,6.84 92.60,7.40 93.16,8.18 93.49,9.18">
        <request index="0"  response="00000000000000000000" foes="00000000000011000000" cont="0"/>
        <request index="1"  response="00000000000000000000" foes="01111110000111000000" cont="0"/>
        <request index="2"  response="00000000000000000000" foes="01111110000111000000" cont="0"/>
        <request index="3"  response="00000001100000000000" foes="01110001101111000000" cont="1"/>
        <request index="4"  response="01000001100000000000" foes="01000001100000000000" cont="1"/>
        <request index="5"  response="00000001100000000000" foes="00000001100000000000" cont="0"/>
        <request index="6"  response="00000011100000001111" foes="11000011100000001111" cont="0"/>
        <request index="7"  response="00000011100000001111" foes="11000011100000001111" cont="0"/>
        <request index="8"  response="00110011100000001110" foes="00110111100000001110" cont="0"/>
        <request index="9"  response="00110000000000001000" foes="00110000000000001000" cont="0"/>
        <request index="10" response="00000000000000000000" foes="00110000000000000000" cont="0"/>
        <request index="11" response="00000000000000000000" foes="01110000000111111000" cont="0"/>
        <request index="12" response="00000000000000000000" foes="01110000000111111000" cont="0"/>
        <request index="13" response="00000000000000000110" foes="11110000000111000110" cont="1"/>
        <request index="14" response="00000000000100000110" foes="00000000000100000110" cont="1"/>
        <request index="15" response="00000000000000000110" foes="00000000000000000110" cont="0"/>
        <request index="16" response="00000011110000001110" foes="00000011111100001110" cont="0"/>
        <request index="17" response="00000011110000001110" foes="00000011111100001110" cont="0"/>
        <request index="18" response="00000011100011001110" foes="00000011100011011110" cont="0"/>
        <request index="19" response="00000010000011000000" foes="00000010000011000000" cont="0"/>
    </junction>
    <junction id="JW" type="dead_end" x="-10.40" y="0.00" incLanes="WBW_0 WBW_1" intLanes="" shape="-10.40,0.00 -10.40,6.40 -10.40,0.00"/>

    <junction id=":JTL_20_0" type="internal" x="99.11" y="5.44" incLanes=":JTL_3_0 NBS_0 NBS_1" intLanes=":JTL_6_0 :JTL_6_1 :JTL_8_0 :JTL_9_0 :JTL_10_0 :JTL_11_0 :JTL_11_1 :JTL_16_0 :JTL_16_1 :JTL_18_0"/>
    <junction id=":JTL_21_0" type="internal" x="99.20" y="9.20" incLanes=":JTL_4_0 EBW_1 NBS_0 NBS_1 WBE_0" intLanes=":JTL_5_0 :JTL_11_0 :JTL_11_1 :JTL_18_0"/>
    <junction id=":JTL_22_0" type="internal" x="100.89" y="-5.44" incLanes=":JTL_13_0 SBN_0 SBN_1" intLanes=":JTL_0_0 :JTL_1_0 :JTL_1_1 :JTL_6_0 :JTL_6_1 :JTL_8_0 :JTL_16_0 :JTL_16_1 :JTL_18_0 :JTL_19_0"/>
    <junction id=":JTL_23_0" type="internal" x="100.80" y="-9.20" incLanes=":JTL_14_0 EBW_0 SBN_0 SBN_1 WBE_1" intLanes=":JTL_1_0 :JTL_1_1 :JTL_8_0 :JTL_15_0"/>

    <connection from="EBW" to="SBS" fromLane="0" toLane="0" via=":JTL_15_0" dir="r" state="m"/>
    <connection from="EBW" to="EBE" fromLane="0" toLane="0" via=":JTL_16_0" dir="s" state="m"/>
    <connection from="EBW" to="EBE" fromLane="1" toLane="1" via=":JTL_16_1" dir="s" state="m"/>
    <connection from="EBW" to="NBN" fromLane="1" toLane="1" via=":JTL_18_0" dir="l" state="m"/>
    <connection from="EBW" to="WBW" fromLane="1" toLane="1" via=":JTL_19_0" dir="t" state="m"/>
    <connection from="NBS" to="EBE" fromLane="0" toLane="0" via=":JTL_10_0" dir="r" state="M"/>
    <connection from="NBS" to="NBN" fromLane="0" toLane="0" via=":JTL_11_0" dir="s" state="M"/>
    <connection from="NBS" to="NBN" fromLane="1" toLane="1" via=":JTL_11_1" dir="s" state="M"/>
    <connection from="NBS" to="WBW" fromLane="1" toLane="1" via=":JTL_13_0" dir="l" state="m"/>
    <connection from="NBS" to="SBS" fromLane="1" toLane="1" via=":JTL_14_0" dir="t" state="m"/>
    <connection from="SBN" to="WBW" fromLane="0" toLane="0" via=":JTL_0_0" dir="r" state="M"/>
    <connection from="SBN" to="SBS" fromLane="0" toLane="0" via=":JTL_1_0" dir="s" state="M"/>
    <connection from="SBN" to="SBS" fromLane="1" toLane="1" via=":JTL_1_1" dir="s" state="M"/>
    <connection from="SBN" to="EBE" fromLane="1" toLane="1" via=":JTL_3_0" dir="l" state="m"/>
    <connection from="SBN" to="NBN" fromLane="1" toLane="1" via=":JTL_4_0" dir="t" state="m"/>
    <connection from="WBE" to="NBN" fromLane="0" toLane="0" via=":JTL_5_0" dir="r" state="m"/>
    <connection from="WBE" to="WBW" fromLane="0" toLane="0" via=":JTL_6_0" dir="s" state="m"/>
    <connection from="WBE" to="WBW" fromLane="1" toLane="1" via=":JTL_6_1" dir="s" state="m"/>
    <connection from="WBE" to="SBS" fromLane="1" toLane="1" via=":JTL_8_0" dir="l" state="m"/>
    <connection from="WBE" to="EBE" fromLane="1" toLane="1" via=":JTL_9_0" dir="t" state="m"/>

    <connection from=":JTL_0" to="WBW" fromLane="0" toLane="0" dir="r" state="M"/>
    <connection from=":JTL_1" to="SBS" fromLane="0" toLane="0" dir="s" state="M"/>
    <connection from=":JTL_1" to="SBS" fromLane="1" toLane="1" dir="s" state="M"/>
    <connection from=":JTL_3" to="EBE" fromLane="0" toLane="1" via=":JTL_20_0" dir="l" state="m"/>
    <connection from=":JTL_20" to="EBE" fromLane="0" toLane="1" dir="l" state="M"/>
    <connection from=":JTL_4" to="NBN" fromLane="0" toLane="1" via=":JTL_21_0" dir="t" state="m"/>
    <connection from=":JTL_21" to="NBN" fromLane="0" toLane="1" dir="t" state="M"/>
    <connection from=":JTL_5" to="NBN" fromLane="0" toLane="0" dir="r" state="M"/>
    <connection from=":JTL_6" to="WBW" fromLane="0" toLane="0" dir="s" state="M"/>
    <connection from=":JTL_6" to="WBW" fromLane="1" toLane="1" dir="s" state="M"/>
    <connection from=":JTL_8" to="SBS" fromLane="0" toLane="1" dir="l" state="M"/>
    <connection from=":JTL_9" to="EBE" fromLane="0" toLane="1" dir="t" state="M"/>
    <connection from=":JTL_10" to="EBE" fromLane="0" toLane="0" dir="r" state="M"/>
    <connection from=":JTL_11" to="NBN" fromLane="0" toLane="0" dir="s" state="M"/>
    <connection from=":JTL_11" to="NBN" fromLane="1" toLane="1" dir="s" state="M"/>
    <connection from=":JTL_13" to="WBW" fromLane="0" toLane="1" via=":JTL_22_0" dir="l" state="m"/>
    <connection from=":JTL_22" to="WBW" fromLane="0" toLane="1" dir="l" state="M"/>
    <connection from=":JTL_14" to="SBS" fromLane="0" toLane="1" via=":JTL_23_0" dir="t" state="m"/>
    <connection from=":JTL_23" to="SBS" fromLane="0" toLane="1" dir="t" state="M"/>
    <connection from=":JTL_15" to="SBS" fromLane="0" toLane="0" dir="r" state="M"/>
    <connection from=":JTL_16" to="EBE" fromLane="0" toLane="0" dir="s" state="M"/>
    <connection from=":JTL_16" to="EBE" fromLane="1" toLane="1" dir="s" state="M"/>
    <connection from=":JTL_18" to="NBN" fromLane="0" toLane="1" dir="l" state="M"/>
    <connection from=":JTL_19" to="WBW" fromLane="0" toLane="1" dir="t" state="M"/>

</net>
